[TITLE]


[JUNCTIONS]
;ID              	Elev        	Demand      	Pattern         
 46291           	10          	0.00        	                	;
 46292           	10          	0.00        	                	;
 YEDONG          	10          	1           	1               	;
 46424           	10          	0.00        	                	;
 46425           	10          	0.00        	                	;
 46563           	18.3        	0.00        	                	;
 46564           	10          	0.00        	                	;
 51665           	10          	0.00        	                	;
 51666           	10          	0.00        	                	;
 51716           	11.46       	0.00        	                	;
 53249           	12.7        	0.00        	                	;
 53250           	5           	0.00        	                	;
 53587           	10          	0.00        	                	;
 MAHANG          	15          	1           	1               	;
 53957           	11.94       	0.00        	                	;
 54399           	5           	0.00        	                	;
 KUKJEONG        	12.8        	1           	1               	;
 54416           	0           	0.00        	                	;
 54456           	5           	0.00        	                	;
 CHANGJEON       	14.6        	1           	1               	;
 Poryng          	13.7        	0           	1               	;
 Poryng2         	13.6        	0.00        	                	;
 55146           	10          	0.00        	                	;
 55555           	20          	0.00        	                	;
 55745           	10          	0.00        	                	;
 HWANGJEON       	5           	1           	1               	;
 56623           	12.1        	0.00        	                	;
 56646           	20          	0.00        	                	;
 56647           	20          	0.00        	                	;
 56690           	18.46       	0.00        	                	;
 56691           	20          	0.00        	                	;

[RESERVOIRS]
;ID              	Head        	Pattern         
 1               	59.6        	                	;

[TANKS]
;ID              	Elevation   	InitLevel   	MinLevel    	MaxLevel    	Diameter    	MinVol      	VolCurve        	Overflow

[PIPES]
;ID              	Node1           	Node2           	Length      	Diameter    	Roughness   	MinorLoss   	Status
 180             	46291           	46292           	285.4       	75          	100         	0           	Open  	;
 181             	YEDONG          	46292           	121.1       	50          	100         	0           	Open  	;
 284             	46424           	46425           	469.8       	80          	100         	0           	Open  	;
 385             	46563           	46564           	644.8       	150         	100         	0           	Open  	;
 4046            	51665           	51666           	235.8       	150         	100         	0           	Open  	;
 4082            	51716           	51666           	738.87      	50          	100         	0           	Open  	;
 4449            	51666           	46291           	112.3       	125         	100         	0           	Open  	;
 4723            	46564           	51665           	168.4       	150         	100         	0           	Open  	;
 4805            	46564           	51716           	36.62       	50          	100         	0           	Open  	;
 5557            	53249           	53250           	204.76      	50          	100         	0           	Open  	;
 5961            	53587           	53249           	242.2       	50          	100         	0           	Open  	;
 6390            	MAHANG          	53957           	253.4       	50          	100         	0           	Open  	;
 6952            	54399           	KUKJEONG        	656.21      	50          	100         	0           	Open  	;
 6974            	54399           	54416           	183.48      	50          	100         	0           	Open  	;
 7033            	54456           	CHANGJEON       	120.83      	50          	100         	0           	Open  	;
 8007            	Poryng          	Poryng2         	187.61      	50          	100         	0           	Open  	;
 8049            	CHANGJEON       	55146           	66.6        	50          	100         	0           	Open  	;
 8529            	46291           	53587           	397.8       	75          	100         	0           	Open  	;
 8619            	55555           	MAHANG          	160.8       	75          	100         	0           	Open  	;
 8620            	MAHANG          	53587           	267.1       	75          	100         	0           	Open  	;
 8960            	YEDONG          	55745           	27.5        	50          	100         	0           	Open  	;
 8963            	54416           	54456           	79.07       	50          	100         	0           	Open  	;
 8964            	54456           	HWANGJEON       	1038.88     	50          	100         	0           	Open  	;
 10577           	56623           	51665           	164.9       	50          	100         	0           	Open  	;
 10624           	51716           	56623           	3.21        	50          	100         	0           	Open  	;
 10627           	56646           	56647           	126.5       	75          	100         	0           	Open  	;
 10628           	56647           	55555           	16.2        	75          	100         	0           	Open  	;
 10694           	56647           	Poryng          	606.84      	50          	100         	0           	Open  	;
 10723           	56690           	56691           	5.7         	150         	100         	0           	Open  	;
 10784           	54399           	56646           	254.1       	75          	100         	0           	Open  	;
 10800           	1               	56690           	44.1        	150         	100         	0           	Open  	;
 10801           	56690           	46563           	3.9         	150         	100         	0           	Open  	;
 11731           	46424           	YEDONG          	83.1        	50          	100         	0           	Open  	;
 11732           	46292           	46424           	81.2        	50          	100         	0           	Open  	;
 11804           	55146           	54416           	229.84      	50          	100         	0           	Open  	;
 1               	56646           	Poryng          	170         	50          	100         	0           	Open  	;

[PUMPS]
;ID              	Node1           	Node2           	Parameters

[VALVES]
;ID              	Node1           	Node2           	Diameter    	Type	Setting     	MinorLoss   

[TAGS]
 NODE 	46291           	|BZ003|
 NODE 	46292           	|BZ003|
 NODE 	YEDONG          	|BZ003|
 NODE 	46424           	|BZ003|
 NODE 	46425           	|BZ003|
 NODE 	46563           	|BZ003|
 NODE 	46564           	|BZ003|
 NODE 	51665           	|BZ003|
 NODE 	51666           	|BZ003|
 NODE 	51716           	|BZ003|
 NODE 	53249           	|BZ003|
 NODE 	53250           	|BZ003|
 NODE 	53587           	|BZ003|
 NODE 	MAHANG          	|BZ003|
 NODE 	53957           	|BZ003|
 NODE 	54399           	|BZ003|
 NODE 	KUKJEONG        	|BZ003|
 NODE 	54416           	|BZ003|
 NODE 	54456           	|BZ003|
 NODE 	CHANGJEON       	|BZ003|
 NODE 	Poryng          	|BZ003|
 NODE 	Poryng2         	|BZ003|
 NODE 	55146           	|BZ003|
 NODE 	55555           	|BZ003|
 NODE 	55745           	|BZ003|
 NODE 	HWANGJEON       	|BZ003|
 NODE 	56623           	|BZ003|
 NODE 	56646           	|BZ003|
 NODE 	56647           	|BZ003|
 NODE 	56690           	|BZ003|
 NODE 	56691           	|BZ003|
 LINK 	180             	|1991000526||||BZ003|
 LINK 	181             	|1991000527||||BZ003|
 LINK 	284             	|2015047505||||BZ003|
 LINK 	385             	|2013235362||||BZ003|
 LINK 	4046            	|1991000678||||BZ003|
 LINK 	4082            	|1991000601||||BZ003|
 LINK 	4449            	|1991000679||||BZ003|
 LINK 	4723            	|1991000677||||BZ003|
 LINK 	4805            	|1991000496||||BZ003|
 LINK 	5557            	|2013000398||||BZ003|
 LINK 	5961            	|1991000523||||BZ003|
 LINK 	6390            	|1991000517||||BZ003|
 LINK 	6952            	|1991000516||||BZ003|
 LINK 	6974            	|1991000515||||BZ003|
 LINK 	7033            	|1991000487||||BZ003|
 LINK 	8007            	|2012009604||||BZ003|
 LINK 	8049            	|1991000488||||BZ003|
 LINK 	8529            	|1991000619||||BZ003|
 LINK 	8619            	|1991000623||||BZ003|
 LINK 	8620            	|1991000624||||BZ003|
 LINK 	8960            	|1991000603||||BZ003|
 LINK 	8963            	|1991000604||||BZ003|
 LINK 	8964            	|1991000605||||BZ003|
 LINK 	10577           	|2013235367||||BZ003|
 LINK 	10624           	|2013235366||||BZ003|
 LINK 	10627           	|2013235268||||BZ003|
 LINK 	10628           	|2013235269||||BZ003|
 LINK 	10694           	|2013235078||||BZ003|
 LINK 	10723           	|2013235335||||BZ003|
 LINK 	10784           	|2013235214||||BZ003|
 LINK 	10800           	|2013235359||||BZ003|
 LINK 	10801           	|2013235361||||BZ003|
 LINK 	11731           	|2015047508||||BZ003|
 LINK 	11732           	|2015047507||||BZ003|
 LINK 	11804           	|1991000479||||BZ003|

[DEMANDS]
;Junction        	Demand      	Pattern         	Category

[STATUS]
;ID              	Status/Setting

[PATTERNS]
;ID              	Multipliers
;
 1               	1           	1           	1           

[CURVES]
;ID              	X-Value     	Y-Value

[CONTROLS]


[RULES]


[ENERGY]
 Global Efficiency  	75
 Global Price       	0
 Demand Charge      	0

[EMITTERS]
;Junction        	Coefficient

[QUALITY]
;Node            	InitQual

[SOURCES]
;Node            	Type        	Quality     	Pattern

[REACTIONS]
;Type     	Pipe/Tank       	Coefficient


[REACTIONS]
 Order Bulk            	1
 Order Tank            	1
 Order Wall            	1
 Global Bulk           	0
 Global Wall           	0
 Limiting Potential    	0
 Roughness Correlation 	0

[MIXING]
;Tank            	Model

[TIMES]
 Duration           	0
 Hydraulic Timestep 	1:00
 Quality Timestep   	1:00
 Pattern Timestep   	1:00
 Pattern Start      	0:00
 Report Timestep    	1:00
 Report Start       	0:00
 Start ClockTime    	0:00
 Statistic          	None

[REPORT]
 Status             	No
 Summary            	No
 Page               	0

[OPTIONS]
 Units              	CMH
 Headloss           	H-W
 Specific Gravity   	1
 Viscosity          	1
 Trials             	40
 Accuracy           	0.001
 CHECKFREQ          	2
 MAXCHECK           	10
 DAMPLIMIT          	0
 Unbalanced         	Continue 10
 Pattern            	1
 Demand Multiplier  	1.0
 Emitter Exponent   	0.5
 Quality            	None mg/L
 Diffusivity        	1
 Tolerance          	0.01

[COORDINATES]
;Node            	X-Coord           	Y-Coord
46291           	14120403.555      	4255420.331       
46292           	14120732.845      	4255523.394       
YEDONG          	14120834.159      	4255456.432       
46424           	14120830.316      	4255545.077       
46425           	14121386.979      	4255643.694       
46563           	14119760.636      	4254374.043       
46564           	14120009.118      	4254971.303       
51665           	14120196.833      	4255057.769       
51666           	14120346.622      	4255294.640       
51716           	14120009.506      	4255005.171       
53249           	14119785.954      	4255609.990       
53250           	14119626.894      	4255731.893       
53587           	14120020.926      	4255644.180       
MAHANG          	14120012.913      	4255902.376       
53957           	14120227.303      	4256024.327       
54399           	14119575.008      	4256400.781       
KUKJEONG        	14119057.682      	4256698.532       
54416           	14119588.954      	4256581.674       
54456           	14119580.456      	4256660.214       
CHANGJEON       	14119692.304      	4256640.296       
Poryng          	14119883.506      	4256276.399       
Poryng2         	14119833.420      	4256389.912       
55146           	14119718.940      	4256568.647       
55555           	14119884.921      	4256040.623       
55745           	14120830.856      	4255422.691       
HWANGJEON       	14119849.556      	4257324.655       
56623           	14120011.882      	4255007.330       
56646           	14119761.358      	4256160.262       
56647           	14119876.266      	4256058.626       
56690           	14119761.210      	4254369.246       
56691           	14119756.056      	4254374.062       
1               	14119791.842      	4254305.319       

[VERTICES]
;Link            	X-Coord           	Y-Coord
180             	14120404.312      	4255421.342       
180             	14120415.284      	4255436.005       
180             	14120427.788      	4255446.600       
180             	14120449.512      	4255456.893       
180             	14120498.274      	4255469.777       
180             	14120539.289      	4255478.871       
180             	14120611.642      	4255495.191       
180             	14120651.506      	4255504.051       
180             	14120686.299      	4255512.440       
180             	14120724.088      	4255521.529       
181             	14120821.274      	4255468.611       
181             	14120800.671      	4255447.666       
181             	14120772.688      	4255477.716       
181             	14120754.328      	4255493.097       
181             	14120745.551      	4255504.660       
284             	14120861.718      	4255553.038       
284             	14120919.442      	4255566.198       
284             	14121021.476      	4255590.044       
284             	14121093.431      	4255605.266       
284             	14121158.474      	4255620.069       
284             	14121205.223      	4255630.760       
284             	14121226.358      	4255638.552       
284             	14121237.739      	4255642.246       
284             	14121259.693      	4255645.546       
284             	14121304.814      	4255657.459       
284             	14121323.105      	4255663.614       
284             	14121333.271      	4255664.037       
284             	14121344.252      	4255663.237       
284             	14121362.146      	4255662.446       
284             	14121371.098      	4255658.375       
385             	14119759.748      	4254384.341       
385             	14119753.847      	4254397.394       
385             	14119745.243      	4254417.424       
385             	14119736.102      	4254439.990       
385             	14119727.918      	4254471.997       
385             	14119722.953      	4254524.920       
385             	14119716.336      	4254593.198       
385             	14119709.048      	4254673.891       
385             	14119704.081      	4254727.796       
385             	14119703.358      	4254772.232       
385             	14119704.946      	4254795.761       
385             	14119708.819      	4254815.045       
385             	14119712.707      	4254824.200       
385             	14119725.043      	4254839.904       
385             	14119742.909      	4254855.618       
385             	14119771.510      	4254871.675       
385             	14119854.073      	4254911.020       
385             	14119890.481      	4254927.416       
385             	14119922.985      	4254943.480       
385             	14119977.599      	4254966.768       
385             	14119997.193      	4254965.185       
4046            	14120207.899      	4255064.217       
4046            	14120231.679      	4255078.568       
4046            	14120256.532      	4255097.788       
4046            	14120275.466      	4255118.726       
4046            	14120291.369      	4255147.012       
4046            	14120303.997      	4255173.665       
4046            	14120318.852      	4255220.090       
4046            	14120323.384      	4255241.270       
4046            	14120335.966      	4255273.155       
4082            	14120008.301      	4255007.194       
4082            	14120001.861      	4255017.127       
4082            	14119996.995      	4255022.697       
4082            	14119995.847      	4255024.012       
4082            	14119990.245      	4255030.257       
4082            	14119975.939      	4255041.763       
4082            	14119974.324      	4255043.218       
4082            	14119969.327      	4255047.719       
4082            	14119965.629      	4255050.922       
4082            	14119959.604      	4255059.017       
4082            	14119955.280      	4255064.826       
4082            	14119954.456      	4255065.932       
4082            	14119948.463      	4255072.602       
4082            	14119943.319      	4255074.795       
4082            	14119947.332      	4255087.150       
4082            	14119948.900      	4255091.977       
4082            	14119951.573      	4255103.508       
4082            	14119953.607      	4255112.282       
4082            	14119957.875      	4255127.151       
4082            	14119961.134      	4255135.085       
4082            	14119964.372      	4255142.971       
4082            	14119963.397      	4255155.251       
4082            	14119958.334      	4255167.690       
4082            	14119952.531      	4255181.948       
4082            	14119951.075      	4255218.031       
4082            	14119955.335      	4255223.181       
4082            	14119976.094      	4255260.259       
4082            	14120012.092      	4255287.849       
4082            	14120024.452      	4255295.588       
4082            	14120054.112      	4255317.818       
4082            	14120071.943      	4255331.182       
4082            	14120096.953      	4255326.464       
4082            	14120098.356      	4255326.199       
4082            	14120114.919      	4255315.940       
4082            	14120128.455      	4255303.281       
4082            	14120134.635      	4255297.502       
4082            	14120161.167      	4255284.446       
4082            	14120168.663      	4255280.758       
4082            	14120174.934      	4255280.948       
4082            	14120190.002      	4255281.406       
4082            	14120195.551      	4255281.575       
4082            	14120218.819      	4255284.809       
4082            	14120237.359      	4255288.504       
4082            	14120240.340      	4255289.352       
4082            	14120251.943      	4255292.657       
4082            	14120270.437      	4255301.315       
4082            	14120287.074      	4255311.392       
4082            	14120295.308      	4255318.342       
4082            	14120295.669      	4255318.647       
4082            	14120299.036      	4255322.160       
4082            	14120305.621      	4255329.029       
4082            	14120307.163      	4255330.154       
4082            	14120311.839      	4255333.567       
4082            	14120315.032      	4255335.477       
4082            	14120318.775      	4255332.830       
4082            	14120323.462      	4255326.192       
4082            	14120327.952      	4255319.832       
4082            	14120338.685      	4255304.631       
4082            	14120340.866      	4255301.885       
4449            	14120348.818      	4255299.068       
4449            	14120362.288      	4255330.473       
4449            	14120368.561      	4255354.100       
4449            	14120379.540      	4255376.705       
4449            	14120387.663      	4255393.431       
4449            	14120401.107      	4255416.736       
4723            	14120029.132      	4254981.712       
4723            	14120032.377      	4254983.400       
4723            	14120042.747      	4254987.865       
4723            	14120076.985      	4255001.659       
4723            	14120085.795      	4255004.811       
4723            	14120099.254      	4255009.626       
4723            	14120123.005      	4255017.877       
4723            	14120144.876      	4255028.631       
4723            	14120159.466      	4255035.997       
4805            	14120008.638      	4254972.302       
4805            	14120003.771      	4254982.431       
4805            	14120003.754      	4254992.235       
4805            	14120004.418      	4254995.271       
4805            	14120005.348      	4254999.517       
5557            	14119780.703      	4255612.925       
5557            	14119753.647      	4255630.343       
5557            	14119733.183      	4255643.231       
5557            	14119727.133      	4255649.568       
5557            	14119716.446      	4255662.233       
5557            	14119711.791      	4255669.339       
5557            	14119709.668      	4255676.023       
5557            	14119706.929      	4255682.007       
5557            	14119703.099      	4255687.245       
5557            	14119690.817      	4255696.407       
5557            	14119667.095      	4255709.079       
5557            	14119657.739      	4255714.064       
5557            	14119653.951      	4255716.726       
5961            	14119996.649      	4255635.264       
5961            	14119980.261      	4255627.999       
5961            	14119957.765      	4255617.380       
5961            	14119935.743      	4255606.594       
5961            	14119904.617      	4255594.385       
5961            	14119879.400      	4255585.021       
5961            	14119878.472      	4255584.738       
5961            	14119869.088      	4255581.873       
5961            	14119843.748      	4255574.136       
5961            	14119821.193      	4255569.825       
5961            	14119799.823      	4255565.955       
5961            	14119784.364      	4255564.259       
5961            	14119783.951      	4255576.112       
5961            	14119789.656      	4255600.119       
5961            	14119788.964      	4255602.893       
6390            	14120026.085      	4255905.037       
6390            	14120035.023      	4255904.193       
6390            	14120046.581      	4255903.620       
6390            	14120071.133      	4255902.404       
6390            	14120094.339      	4255903.582       
6390            	14120104.543      	4255905.113       
6390            	14120124.697      	4255908.137       
6390            	14120132.216      	4255909.265       
6390            	14120151.398      	4255909.388       
6390            	14120169.841      	4255906.667       
6390            	14120167.442      	4255923.829       
6390            	14120166.586      	4255927.874       
6390            	14120165.812      	4255931.537       
6390            	14120163.241      	4255936.071       
6390            	14120161.376      	4255939.962       
6390            	14120157.844      	4255950.947       
6390            	14120166.677      	4255950.743       
6390            	14120173.259      	4255954.461       
6390            	14120180.413      	4255962.469       
6390            	14120187.141      	4255967.576       
6390            	14120197.727      	4255975.612       
6390            	14120202.521      	4255980.586       
6390            	14120205.629      	4255983.809       
6390            	14120206.135      	4255985.889       
6390            	14120209.197      	4255998.467       
6390            	14120215.155      	4256013.516       
6952            	14119562.616      	4256395.708       
6952            	14119555.324      	4256395.800       
6952            	14119545.631      	4256396.477       
6952            	14119476.141      	4256401.332       
6952            	14119463.572      	4256404.740       
6952            	14119425.892      	4256407.543       
6952            	14119403.390      	4256408.653       
6952            	14119392.713      	4256407.614       
6952            	14119389.033      	4256403.523       
6952            	14119357.401      	4256401.001       
6952            	14119348.981      	4256401.171       
6952            	14119339.655      	4256407.638       
6952            	14119327.160      	4256412.648       
6952            	14119308.458      	4256420.866       
6952            	14119294.338      	4256430.244       
6952            	14119281.476      	4256441.311       
6952            	14119275.044      	4256447.448       
6952            	14119259.244      	4256467.338       
6952            	14119249.384      	4256481.820       
6952            	14119240.700      	4256495.647       
6952            	14119233.463      	4256511.035       
6952            	14119215.252      	4256543.566       
6952            	14119209.103      	4256554.615       
6952            	14119194.328      	4256576.849       
6952            	14119182.315      	4256594.224       
6952            	14119167.662      	4256612.878       
6952            	14119158.078      	4256622.901       
6952            	14119146.832      	4256636.462       
6952            	14119129.098      	4256653.295       
6952            	14119110.850      	4256667.835       
6952            	14119076.135      	4256688.132       
6974            	14119581.677      	4256424.197       
6974            	14119589.376      	4256452.890       
6974            	14119592.144      	4256470.657       
6974            	14119592.922      	4256480.556       
6974            	14119594.131      	4256538.490       
6974            	14119593.341      	4256551.457       
6974            	14119592.802      	4256560.312       
7033            	14119589.482      	4256659.911       
7033            	14119606.257      	4256656.621       
7033            	14119609.382      	4256654.835       
7033            	14119616.137      	4256650.974       
7033            	14119619.791      	4256648.885       
7033            	14119630.296      	4256641.945       
7033            	14119632.947      	4256641.344       
7033            	14119644.138      	4256638.808       
7033            	14119658.893      	4256641.925       
7033            	14119666.847      	4256645.408       
7033            	14119670.996      	4256648.182       
7033            	14119673.766      	4256648.495       
7033            	14119679.046      	4256648.195       
7033            	14119682.179      	4256646.807       
7033            	14119686.422      	4256644.524       
7033            	14119691.691      	4256640.873       
8007            	14119873.273      	4256290.142       
8007            	14119870.504      	4256292.915       
8007            	14119868.062      	4256293.564       
8007            	14119865.460      	4256293.560       
8007            	14119850.835      	4256283.569       
8007            	14119848.395      	4256283.565       
8007            	14119834.869      	4256298.576       
8007            	14119817.924      	4256315.214       
8007            	14119817.109      	4256316.520       
8007            	14119817.105      	4256318.644       
8007            	14119823.103      	4256332.052       
8007            	14119824.884      	4256337.284       
8007            	14119826.508      	4256338.921       
8007            	14119847.318      	4256346.307       
8007            	14119848.292      	4256347.616       
8007            	14119843.365      	4256376.366       
8007            	14119841.073      	4256385.349       
8007            	14119839.118      	4256387.143       
8049            	14119700.336      	4256632.740       
8049            	14119703.329      	4256629.714       
8049            	14119708.492      	4256624.495       
8049            	14119711.557      	4256620.233       
8049            	14119717.011      	4256608.454       
8049            	14119720.630      	4256600.638       
8049            	14119720.993      	4256598.182       
8049            	14119721.594      	4256594.113       
8049            	14119721.467      	4256590.607       
8049            	14119719.827      	4256583.662       
8049            	14119718.839      	4256580.051       
8049            	14119717.759      	4256576.103       
8049            	14119718.332      	4256570.045       
8529            	14120402.693      	4255421.243       
8529            	14120397.999      	4255426.208       
8529            	14120389.910      	4255436.035       
8529            	14120381.060      	4255445.975       
8529            	14120366.125      	4255462.870       
8529            	14120358.400      	4255469.927       
8529            	14120351.276      	4255476.158       
8529            	14120344.751      	4255481.562       
8529            	14120330.806      	4255489.610       
8529            	14120290.074      	4255511.294       
8529            	14120283.951      	4255514.183       
8529            	14120263.625      	4255522.768       
8529            	14120246.377      	4255530.187       
8529            	14120227.428      	4255539.022       
8529            	14120217.780      	4255544.941       
8529            	14120208.687      	4255556.552       
8529            	14120204.263      	4255567.799       
8529            	14120201.564      	4255574.665       
8529            	14120197.240      	4255593.833       
8529            	14120194.095      	4255619.245       
8529            	14120189.738      	4255626.167       
8529            	14120184.846      	4255627.904       
8529            	14120169.174      	4255628.609       
8529            	14120163.086      	4255628.451       
8529            	14120150.154      	4255628.116       
8529            	14120147.442      	4255627.989       
8529            	14120136.056      	4255627.458       
8529            	14120115.078      	4255626.452       
8529            	14120112.900      	4255626.347       
8529            	14120069.810      	4255624.757       
8529            	14120058.035      	4255624.227       
8529            	14120048.411      	4255627.113       
8529            	14120031.665      	4255635.047       
8529            	14120028.020      	4255636.774       
8529            	14120024.090      	4255639.988       
8619            	14119891.503      	4256033.788       
8619            	14119899.953      	4256026.958       